*SPEF "IEEE 1481-2009"
*DESIGN "cpu"
*DATE "21-05-2019"
*VENDOR "SPEF Generator"
*PROGRAM "SPEF Generator"
*VERSION "1.1.0"
*DESIGN_FLOW "NETLIST_TYPE_VERILOG"
*DIVIDER /
*DELIMITER :
*BUS_DELIMITER <>
*T_UNIT 1 NS
*C_UNIT 1 PF
*R_UNIT 1 OHM
*L_UNIT 1 HENRY

*NAME_MAP
*1 vdd
*2 gnd
*3 clk
*4 reset
*5 DI<0>
*6 DI<1>
*7 DI<2>
*8 DI<3>
*9 DI<4>
*10 DI<5>
*11 DI<6>
*12 DI<7>
*13 IRQ
*14 NMI
*15 RDY
*16 AB<0>
*17 AB<1>
*18 AB<2>
*19 AB<3>
*20 AB<4>
*21 AB<5>
*22 AB<6>
*23 AB<7>
*24 AB<8>
*25 AB<9>
*26 AB<10>
*27 AB<11>
*28 AB<12>
*29 AB<13>
*30 AB<14>
*31 AB<15>
*32 DO<0>
*33 DO<1>
*34 DO<2>
*35 DO<3>
*36 DO<4>
*37 DO<5>
*38 DO<6>
*39 DO<7>
*40 WE
*41 RDY_bF$buf8
*42 RDY_bF$buf7
*43 RDY_bF$buf6
*44 RDY_bF$buf5
*45 RDY_bF$buf4
*46 RDY_bF$buf3
*47 RDY_bF$buf2
*48 RDY_bF$buf1
*49 RDY_bF$buf0
*50 _799_
*51 _799__bF$buf3
*52 _799__bF$buf2
*53 _799__bF$buf1
*54 _799__bF$buf0
*55 clk_bF$buf11
*56 clk_bF$buf10
*57 clk_bF$buf9
*58 clk_bF$buf7
*59 clk_bF$buf5
*60 clk_bF$buf4
*61 clk_bF$buf3
*62 clk_bF$buf2
*63 clk_bF$buf1
*64 clk_bF$buf0
*65 _1101_
*66 _1101__bF$buf3
*67 _1101__bF$buf2
*68 _1101__bF$buf1
*69 _1101__bF$buf0
*70 _849_
*71 _849__bF$buf4
*72 _849__bF$buf1
*73 _825_
*74 _825__bF$buf4
*75 _825__bF$buf2
*76 _825__bF$buf1
*77 _825__bF$buf0
*78 _155_
*79 _155__bF$buf3
*80 _155__bF$buf2
*81 _155__bF$buf1
*82 _155__bF$buf0
*83 _822_
*84 _822__bF$buf4
*85 _822__bF$buf3
*86 _822__bF$buf2
*87 _822__bF$buf0
*88 _152_
*89 _152__bF$buf3
*90 _152__bF$buf2
*91 _152__bF$buf1
*92 _152__bF$buf0
*93 _795_
*94 _795__bF$buf3
*95 _795__bF$buf1
*96 _795__bF$buf0
*97 _651_
*98 _651__bF$buf4
*99 _651__bF$buf3
*100 _651__bF$buf2
*101 _651__bF$buf1
*102 _651__bF$buf0
*103 _1070_
*104 _1070__bF$buf4
*105 _1070__bF$buf3
*106 _1070__bF$buf2
*107 _1070__bF$buf1
*108 _830_
*109 _830__bF$buf3
*110 _830__bF$buf2
*111 _830__bF$buf1
*112 _1631_
*113 _1631__bF$buf3
*114 _1631__bF$buf2
*115 _1631__bF$buf0
*116 _1017_
*117 _1017__bF$buf7
*118 _1017__bF$buf6
*119 _1017__bF$buf5
*120 _1017__bF$buf4
*121 _1017__bF$buf3
*122 _1017__bF$buf2
*123 _1017__bF$buf0
*124 _859_
*125 _859__bF$buf3
*126 _859__bF$buf2
*127 _859__bF$buf0
*128 _148_
*129 _148__bF$buf3
*130 _148__bF$buf2
*131 _148__bF$buf1
*132 _148__bF$buf0
*133 _815_
*134 _815__bF$buf1
*135 _812_
*136 _812__bF$buf3
*137 _812__bF$buf2
*138 _812__bF$buf1
*139 _812__bF$buf0
*140 _809_
*141 _809__bF$buf3
*142 _809__bF$buf2
*143 _809__bF$buf0
*144 PC<13>
*145 _787_
*146 state<1>
*147 _788_
*148 _789_
*149 state<2>
*150 _790_
*151 state<3>
*152 _791_
*153 _792_
*154 state<4>
*155 _793_
*156 state<5>
*157 _794_
*158 _796_
*159 _797_
*160 _798_
*161 _801_
*162 _802_
*163 _803_
*164 _804_
*165 _805_
*166 _806_
*167 _807_
*168 _808_
*169 _810_
*170 _811_
*171 _813_
*172 _814_
*173 _816_
*174 _817_
*175 _819_
*176 _820_
*177 _821_
*178 _823_
*179 _824_
*180 I
*181 _826_
*182 _827_
*183 _828_
*184 _829_
*185 _831_
*186 ABH<5>
*187 _832_
*188 _833_
*189 _834_
*190 _835_
*191 _836_
*192 _837_
*193 _838_
*194 _839_
*195 _840_
*196 _841_
*197 _843_
*198 DIHOLD<5>
*199 _844_
*200 _845_
*201 DIMUX<5>
*202 ADD<5>
*203 _846_
*204 _847_
*205 _848_
*206 _850_
*207 _852_
*208 _853_
*209 _854_
*210 PC<5>
*211 _855_
*212 _856_
*213 _857_
*214 _858_
*215 _860_
*216 _861_
*217 ABL<5>
*218 _862_
*219 _863_
*220 _864_
*221 _865_
*222 _866_
*223 _867_
*224 PC<4>
*225 _868_
*226 ADD<4>
*227 _869_
*228 _870_
*229 _871_
*230 _872_
*231 ABL<4>
*232 _874_
*233 _876_
*234 _877_
*235 _878_
*236 _879_
*237 PC<7>
*238 _880_
*239 ADD<7>
*240 _882_
*241 _883_
*242 _884_
*243 ABL<7>
*244 _885_
*245 _886_
*246 _887_
*247 _888_
*248 _889_
*249 PC<6>
*250 ADD<6>
*251 _891_
*252 _892_
*253 _893_
*254 _894_
*255 ABL<6>
*256 _895_
*257 _896_
*258 _898_
*259 _899_
*260 _900_
*261 _901_
*262 PC<0>
*263 _902_
*264 ADD<0>
*265 _904_
*266 _905_
*267 _906_
*268 ABL<0>
*269 _908_
*270 _909_
*271 _910_
*272 _911_
*273 CO
*274 backwards
*275 _912_
*276 _913_
*277 _914_
*278 _915_
*279 _916_
*280 _918_
*281 _919_
*282 _920_
*283 _921_
*284 _922_
*285 _923_
*286 _924_
*287 _926_
*288 _927_
*289 _928_
*290 ADD<1>
*291 _929_
*292 PC<1>
*293 _930_
*294 _931_
*295 res
*296 _932_
*297 _933_
*298 _934_
*299 _935_
*300 ABL<1>
*301 _936_
*302 _937_
*303 _938_
*304 _939_
*305 _940_
*306 PC<3>
*307 _941_
*308 ADD<3>
*309 _943_
*310 _944_
*311 _945_
*312 ABL<3>
*313 _946_
*314 _947_
*315 _948_
*316 _949_
*317 _950_
*318 PC<2>
*319 _951_
*320 _952_
*321 _953_
*322 ADD<2>
*323 _955_
*324 _956_
*325 _957_
*326 ABL<2>
*327 _958_
*328 _959_
*329 _960_
*330 _961_
*331 _962_
*332 _963_
*333 _964_
*334 PC<11>
*335 _965_
*336 DIHOLD<3>
*337 _966_
*338 _967_
*339 DIMUX<3>
*340 _968_
*341 ABH<3>
*342 _969_
*343 _970_
*344 _971_
*345 _972_
*346 _973_
*347 _974_
*348 _975_
*349 _976_
*350 PC<10>
*351 _977_
*352 DIHOLD<2>
*353 _978_
*354 _979_
*355 ABH<2>
*356 _980_
*357 _981_
*358 _982_
*359 _983_
*360 _985_
*361 _986_
*362 _987_
*363 _988_
*364 PC<9>
*365 _989_
*366 DIHOLD<1>
*367 _990_
*368 _991_
*369 DIMUX<1>
*370 _992_
*371 ABH<1>
*372 _993_
*373 _994_
*374 _995_
*375 _996_
*376 _997_
*377 _998_
*378 _999_
*379 _1000_
*380 PC<8>
*381 _1001_
*382 DIHOLD<0>
*383 _1002_
*384 _1003_
*385 DIMUX<0>
*386 _1004_
*387 ABH<0>
*388 _1005_
*389 _1006_
*390 _1008_
*391 _1010_
*392 _1011_
*393 _1012_
*394 _1013_
*395 _1014_
*396 _1015_
*397 PC<12>
*398 _1016_
*399 _1018_
*400 DIMUX<4>
*401 ABH<4>
*402 _1020_
*403 _1022_
*404 _1023_
*405 _1024_
*406 _1025_
*407 _1026_
*408 _1027_
*409 _1028_
*410 _1029_
*411 _1030_
*412 _1031_
*413 _1032_
*414 _1033_
*415 _1034_
*416 _1035_
*417 _1036_
*418 _1037_
*419 _1038_
*420 _1039_
*421 _1040_
*422 _1041_
*423 _1042_
*424 _1043_
*425 _1044_
*426 _1045_
*427 _9_<13>
*428 PC<14>
*429 _1046_
*430 _1047_
*431 _1048_
*432 ABH<6>
*433 _1049_
*434 _1050_
*435 _1051_
*436 _1052_
*437 DIMUX<6>
*438 _1054_
*439 _1055_
*440 _1056_
*441 _1057_
*442 _1058_
*443 _9_<14>
*444 PC<15>
*445 _1059_
*446 _1060_
*447 ABH<7>
*448 _1061_
*449 _1062_
*450 _1063_
*451 _1064_
*452 DIMUX<7>
*453 _1066_
*454 _1067_
*455 _1068_
*456 _1069_
*457 _9_<15>
*458 _1071_
*459 _1072_
*460 _1073_
*461 IRHOLD<3>
*462 _1074_
*463 _1075_
*464 _1076_
*465 _1077_
*466 IRHOLD<2>
*467 _1078_
*468 _1079_
*469 _1080_
*470 _1081_
*471 IRHOLD<1>
*472 _1082_
*473 IRHOLD<0>
*474 _1084_
*475 _1085_
*476 _1086_
*477 _1088_
*478 _1089_
*479 _1090_
*480 _1091_
*481 _1092_
*482 IRHOLD<5>
*483 _1093_
*484 _1096_
*485 _1097_
*486 _1098_
*487 _1099_
*488 _1100_
*489 _1103_
*490 _1104_
*491 _1105_
*492 _1106_
*493 _1107_
*494 _1108_
*495 _1109_
*496 _1112_
*497 _1113_
*498 _1114_
*499 _1115_
*500 _1116_
*501 _1117_
*502 _1118_
*503 _1119_
*504 _1121_
*505 _1122_
*506 _1123_
*507 _1124_
*508 _1126_
*509 _1127_
*510 _1128_
*511 _1129_
*512 _1130_
*513 _1132_
*514 _1133_
*515 _1134_
*516 _1135_
*517 _1136_
*518 _1138_
*519 _1140_
*520 _1141_
*521 _1143_
*522 _1144_
*523 _1145_
*524 _1146_
*525 _1147_
*526 _1148_
*527 _1149_
*528 _1150_
*529 _1151_
*530 _1152_
*531 _1153_
*532 _1154_
*533 _1157_
*534 _1158_
*535 _1159_
*536 _1160_
*537 _1162_
*538 _1163_
*539 _1164_
*540 _1165_
*541 _1166_
*542 _1167_
*543 _1168_
*544 _1169_
*545 _1170_
*546 _1171_
*547 _1173_
*548 _1174_
*549 _1176_
*550 _1177_
*551 _1178_
*552 _1179_
*553 _1180_
*554 _1181_
*555 _1182_
*556 _1183_
*557 _1184_
*558 _1185_
*559 _1186_
*560 _1187_
*561 _1188_
*562 _1189_
*563 _1190_
*564 _1192_
*565 _1193_
*566 _1194_
*567 _1195_
*568 _1196_
*569 _1198_
*570 _1199_
*571 _1202_
*572 _1203_
*573 _1204_
*574 _1206_
*575 store
*576 _1207_
*577 _1209_
*578 _1210_
*579 write_back
*580 _1212_
*581 _1213_
*582 _1214_
*583 _1215_
*584 _1216_
*585 _1217_
*586 _1218_
*587 _1219_
*588 _1220_
*589 _1221_
*590 _1222_
*591 IRHOLD<6>
*592 _1224_
*593 _1225_
*594 _1227_
*595 _1228_
*596 _1230_
*597 _1232_
*598 _1233_
*599 _1235_
*600 _1236_
*601 _1237_
*602 _1238_
*603 _1239_
*604 _1240_
*605 _1241_
*606 _1242_
*607 _1243_
*608 _1244_
*609 _1245_
*610 _1246_
*611 _1247_
*612 _1248_
*613 _1249_
*614 _1250_
*615 _1251_
*616 _1252_
*617 _1253_
*618 _1254_
*619 _1255_
*620 _1256_
*621 _1257_
*622 _1438_<0>
*623 _1258_
*624 _1259_
*625 _1260_
*626 _1261_
*627 _1262_
*628 _1263_
*629 _1264_
*630 _1265_
*631 _1266_
*632 _1267_
*633 _1269_
*634 _1270_
*635 _1271_
*636 _1272_
*637 _1273_
*638 _1274_
*639 _1275_
*640 _1276_
*641 _1277_
*642 _1278_
*643 _1281_
*644 _1282_
*645 _1283_
*646 _1284_
*647 _1285_
*648 _1286_
*649 _1287_
*650 _1288_
*651 _1289_
*652 _1290_
*653 _1291_
*654 _1293_
*655 _1294_
*656 _1295_
*657 _1296_
*658 _1297_
*659 _1298_
*660 _1299_
*661 _1300_
*662 _1301_
*663 Z
*664 _1303_
*665 cond_code<1>
*666 _1304_
*667 C
*668 _1305_
*669 V
*670 _1306_
*671 _1307_
*672 N
*673 _1308_
*674 cond_code<2>
*675 _1309_
*676 cond_code<0>
*677 _1310_
*678 _1311_
*679 _1312_
*680 _1313_
*681 _1314_
*682 _1315_
*683 _1316_
*684 _1317_
*685 _1318_
*686 _1319_
*687 _1320_
*688 _1321_
*689 _1322_
*690 _1323_
*691 _1324_
*692 _1325_
*693 _1326_
*694 _1327_
*695 _1328_
*696 _1329_
*697 _1331_
*698 _1332_
*699 _1333_
*700 _1334_
*701 _1438_<1>
*702 _1335_
*703 _1336_
*704 _1337_
*705 _1338_
*706 _1339_
*707 _1340_
*708 _1341_
*709 _1342_
*710 _1343_
*711 _1344_
*712 _1345_
*713 _1346_
*714 _1347_
*715 _1348_
*716 _1349_
*717 _1350_
*718 _1351_
*719 _1352_
*720 _1353_
*721 _1354_
*722 _1355_
*723 _1356_
*724 _1358_
*725 _1360_
*726 _1361_
*727 _1362_
*728 _1363_
*729 _1364_
*730 _1365_
*731 _1366_
*732 _1367_
*733 _1368_
*734 _1369_
*735 _1370_
*736 _1371_
*737 _1372_
*738 _1373_
*739 _1374_
*740 _1376_
*741 _1377_
*742 _1378_
*743 _1379_
*744 _1380_
*745 _1381_
*746 _1382_
*747 _1383_
*748 _1384_
*749 _1385_
*750 _1386_
*751 _1387_
*752 _1388_
*753 _1389_
*754 _1390_
*755 _1391_
*756 _1392_
*757 _1393_
*758 _1394_
*759 _1395_
*760 _1396_
*761 _1397_
*762 _1398_
*763 _1399_
*764 _1400_
*765 _1401_
*766 _1402_
*767 _1403_
*768 _1438_<2>
*769 _1404_
*770 _1405_
*771 _1406_
*772 _1407_
*773 _1408_
*774 _1409_
*775 _1410_
*776 _1411_
*777 _1412_
*778 _1413_
*779 _1415_
*780 _1416_
*781 _1418_
*782 _1419_
*783 _1420_
*784 _1421_
*785 _1422_
*786 _1423_
*787 _1424_
*788 _1425_
*789 _1426_
*790 _1427_
*791 _1428_
*792 _1429_
*793 _1430_
*794 _1431_
*795 _1432_
*796 _1433_
*797 _1434_
*798 _1435_
*799 _1436_
*800 _1437_
*801 _43_
*802 _44_
*803 _45_
*804 _46_
*805 _47_
*806 _48_
*807 _49_
*808 _50_
*809 _51_
*810 _1438_<3>
*811 _52_
*812 _53_
*813 _54_
*814 _55_
*815 _56_
*816 _57_
*817 _58_
*818 _59_
*819 _60_
*820 _1438_<4>
*821 _62_
*822 _63_
*823 _64_
*824 _65_
*825 _66_
*826 _67_
*827 _68_
*828 _69_
*829 _70_
*830 _71_
*831 _72_
*832 _73_
*833 _74_
*834 _75_
*835 _76_
*836 _77_
*837 _78_
*838 _1438_<5>
*839 _79_
*840 _80_
*841 _81_
*842 load_only
*843 _82_
*844 shift
*845 _83_
*846 rotate
*847 _84_
*848 _85_
*849 compare
*850 _86_
*851 _87_
*852 inc
*853 _89_
*854 _90_
*855 _91_
*856 _92_
*857 _93_
*858 _94_
*859 _95_
*860 _96_
*861 _98_
*862 _99_
*863 _100_
*864 _101_
*865 _102_
*866 _103_
*867 CI
*868 _104_
*869 _105_
*870 _106_
*871 _107_
*872 _108_
*873 _109_
*874 _110_
*875 _111_
*876 _112_
*877 _113_
*878 _114_
*879 _115_
*880 _116_
*881 _117_
*882 _118_
*883 BI<1>
*884 BI<2>
*885 BI<3>
*886 BI<4>
*887 _119_
*888 BI<5>
*889 BI<6>
*890 BI<7>
*891 _120_
*892 _121_
*893 _122_
*894 _123_
*895 _124_
*896 _127_
*897 src_reg<1>
*898 _128_
*899 _129_
*900 _130_
*901 _131_
*902 _132_
*903 _133_
*904 _134_
*905 _135_
*906 _136_
*907 _137_
*908 _138_
*909 _140_
*910 dst_reg<1>
*911 _141_
*912 _142_
*913 _143_
*914 _144_
*915 _145_
*916 _146_
*917 AXYS<1><0>
*918 _147_
*919 src_reg<0>
*920 _149_
*921 index_y
*922 _150_
*923 dst_reg<0>
*924 _153_
*925 AXYS<0><0>
*926 _154_
*927 _156_
*928 _157_
*929 _158_
*930 _159_
*931 AXYS<2><0>
*932 _160_
*933 _161_
*934 _162_
*935 _163_
*936 _164_
*937 _165_
*938 _166_
*939 _167_
*940 _168_
*941 _169_
*942 _170_
*943 _171_
*944 _172_
*945 _173_
*946 _175_
*947 AXYS<1><1>
*948 _176_
*949 _177_
*950 AXYS<0><1>
*951 _178_
*952 _179_
*953 _180_
*954 AXYS<3><1>
*955 _181_
*956 _182_
*957 AXYS<2><1>
*958 _183_
*959 _184_
*960 _185_
*961 _186_
*962 AI<1>
*963 _187_
*964 _188_
*965 AXYS<1><2>
*966 _189_
*967 _190_
*968 AXYS<0><2>
*969 _191_
*970 _192_
*971 _193_
*972 AXYS<3><2>
*973 _194_
*974 _195_
*975 AXYS<2><2>
*976 _196_
*977 _197_
*978 _198_
*979 _199_
*980 AI<2>
*981 _200_
*982 _201_
*983 AXYS<1><3>
*984 _202_
*985 _203_
*986 AXYS<0><3>
*987 _204_
*988 _205_
*989 _206_
*990 AXYS<3><3>
*991 _207_
*992 _208_
*993 AXYS<2><3>
*994 _209_
*995 _210_
*996 _211_
*997 _212_
*998 AI<3>
*999 _213_
*1000 AXYS<1><4>
*1001 _215_
*1002 _216_
*1003 AXYS<0><4>
*1004 _217_
*1005 _218_
*1006 AXYS<3><4>
*1007 _220_
*1008 _221_
*1009 AXYS<2><4>
*1010 _222_
*1011 _223_
*1012 _224_
*1013 _225_
*1014 AI<4>
*1015 _226_
*1016 _227_
*1017 _228_
*1018 AXYS<1><5>
*1019 _229_
*1020 _230_
*1021 AXYS<0><5>
*1022 _231_
*1023 _232_
*1024 _233_
*1025 AXYS<3><5>
*1026 _234_
*1027 _235_
*1028 AXYS<2><5>
*1029 _236_
*1030 _237_
*1031 _238_
*1032 _239_
*1033 AI<5>
*1034 _240_
*1035 _241_
*1036 _242_
*1037 _243_
*1038 AXYS<0><6>
*1039 _244_
*1040 _245_
*1041 _246_
*1042 AXYS<3><6>
*1043 _247_
*1044 _248_
*1045 AXYS<2><6>
*1046 _249_
*1047 _250_
*1048 _251_
*1049 _252_
*1050 _253_
*1051 _254_
*1052 AXYS<1><7>
*1053 _255_
*1054 _256_
*1055 AXYS<0><7>
*1056 _257_
*1057 _258_
*1058 _259_
*1059 AXYS<3><7>
*1060 _260_
*1061 _261_
*1062 AXYS<2><7>
*1063 _262_
*1064 _263_
*1065 _264_
*1066 _265_
*1067 AI<7>
*1068 op<0>
*1069 _266_
*1070 _267_
*1071 _268_
*1072 _271_
*1073 _272_
*1074 _273_
*1075 alu_op<0>
*1076 op<1>
*1077 _274_
*1078 alu_op<1>
*1079 _275_
*1080 _276_
*1081 op<2>
*1082 _277_
*1083 alu_op<2>
*1084 op<3>
*1085 _278_
*1086 alu_op<3>
*1087 _279_
*1088 _280_
*1089 _282_
*1090 _1441_
*1091 _283_
*1092 php
*1093 _284_
*1094 _285_
*1095 _286_
*1096 _287_
*1097 _289_
*1098 _1440_<0>
*1099 _290_
*1100 _292_
*1101 _293_
*1102 _294_
*1103 _295_
*1104 _296_
*1105 _1440_<1>
*1106 _297_
*1107 _298_
*1108 _299_
*1109 _300_
*1110 _1440_<2>
*1111 _301_
*1112 D
*1113 _302_
*1114 _303_
*1115 _304_
*1116 _305_
*1117 _1440_<3>
*1118 _306_
*1119 _307_
*1120 _308_
*1121 _309_
*1122 _1440_<4>
*1123 _311_
*1124 _312_
*1125 _313_
*1126 _1440_<5>
*1127 _314_
*1128 _315_
*1129 _316_
*1130 _318_
*1131 _319_
*1132 _320_
*1133 _321_
*1134 _1440_<7>
*1135 _14_
*1136 adc_bcd
*1137 _322_
*1138 ALU.BCD
*1139 _1175_
*1140 _323_
*1141 _31_
*1142 plp
*1143 _324_
*1144 _325_
*1145 _326_
*1146 _327_
*1147 _328_
*1148 _329_
*1149 _330_
*1150 sei
*1151 _331_
*1152 cli
*1153 _332_
*1154 _333_
*1155 _6_
*1156 shift_right
*1157 alu_shift_right
*1158 _334_
*1159 _335_
*1160 _336_
*1161 _337_
*1162 load_reg
*1163 _338_
*1164 _339_
*1165 _340_
*1166 _341_
*1167 _342_
*1168 _343_
*1169 _344_
*1170 _345_
*1171 _1442_<0>
*1172 HC
*1173 _346_
*1174 adj_bcd
*1175 _347_
*1176 _348_
*1177 _349_
*1178 _350_
*1179 _351_
*1180 _352_
*1181 _353_
*1182 _354_
*1183 _1442_<1>
*1184 _355_
*1185 _356_
*1186 _357_
*1187 _358_
*1188 _359_
*1189 _1442_<2>
*1190 _360_
*1191 _362_
*1192 _363_
*1193 _364_
*1194 _365_
*1195 _366_
*1196 _1442_<3>
*1197 _367_
*1198 _368_
*1199 _369_
*1200 _1442_<4>
*1201 _370_
*1202 _371_
*1203 _372_
*1204 _373_
*1205 _374_
*1206 _375_
*1207 _376_
*1208 _377_
*1209 _378_
*1210 _1442_<5>
*1211 _379_
*1212 _380_
*1213 _381_
*1214 _382_
*1215 _383_
*1216 _1442_<6>
*1217 _384_
*1218 _385_
*1219 _386_
*1220 _387_
*1221 _388_
*1222 _389_
*1223 _390_
*1224 _1442_<7>
*1225 NMI_1
*1226 _391_
*1227 _392_
*1228 _7_
*1229 _393_
*1230 _22_<0>
*1231 _394_
*1232 _22_<1>
*1233 _395_
*1234 _22_<2>
*1235 _396_
*1236 _30_
*1237 _397_
*1238 _398_
*1239 _399_
*1240 _29_
*1241 clc
*1242 _400_
*1243 _401_
*1244 _402_
*1245 _17_
*1246 sec
*1247 _403_
*1248 _404_
*1249 _405_
*1250 _33_
*1251 cld
*1252 _406_
*1253 _407_
*1254 _408_
*1255 _409_
*1256 _18_
*1257 sed
*1258 _410_
*1259 _411_
*1260 _34_
*1261 _412_
*1262 _413_
*1263 _414_
*1264 _19_
*1265 _35_
*1266 _415_
*1267 _416_
*1268 clv
*1269 _417_
*1270 _20_
*1271 _418_
*1272 _419_
*1273 _420_
*1274 _421_
*1275 bit_ins
*1276 _422_
*1277 _16_
*1278 _423_
*1279 _424_
*1280 _425_
*1281 _426_
*1282 _428_
*1283 _429_
*1284 _430_
*1285 _432_
*1286 _433_
*1287 _434_
*1288 _435_
*1289 _437_
*1290 _438_
*1291 _439_
*1292 _440_
*1293 _441_
*1294 _442_
*1295 _443_
*1296 _444_
*1297 _445_
*1298 _446_
*1299 _447_
*1300 _448_
*1301 _449_
*1302 _28_<0>
*1303 _450_
*1304 _451_
*1305 _452_
*1306 _28_<1>
*1307 _453_
*1308 _28_<2>
*1309 _28_<3>
*1310 _454_
*1311 _455_
*1312 _456_
*1313 _32_
*1314 _458_
*1315 _459_
*1316 _21_
*1317 _460_
*1318 _36_
*1319 _461_
*1320 _462_
*1321 _463_
*1322 _464_
*1323 _465_
*1324 _12_
*1325 _466_
*1326 _13_
*1327 _467_
*1328 _468_
*1329 _469_
*1330 _24_
*1331 _470_
*1332 _471_
*1333 _472_
*1334 _1443_<0>
*1335 _473_
*1336 _1443_<1>
*1337 _474_
*1338 _1443_<2>
*1339 _475_
*1340 _1443_<3>
*1341 _476_
*1342 _1443_<4>
*1343 _477_
*1344 _1443_<5>
*1345 _478_
*1346 _1443_<6>
*1347 _479_
*1348 _1443_<7>
*1349 _480_
*1350 _481_
*1351 _26_
*1352 _482_
*1353 _483_
*1354 _40_
*1355 _484_
*1356 _485_
*1357 _39_
*1358 _486_
*1359 _487_
*1360 _488_
*1361 _25_
*1362 _489_
*1363 _490_
*1364 _491_
*1365 _492_
*1366 _493_
*1367 _494_
*1368 _495_
*1369 _496_
*1370 _497_
*1371 _498_
*1372 _499_
*1373 _38_<0>
*1374 _500_
*1375 _501_
*1376 _502_
*1377 _503_
*1378 _504_
*1379 _505_
*1380 _38_<1>
*1381 _506_
*1382 _507_
*1383 _508_
*1384 _509_
*1385 _510_
*1386 _23_<0>
*1387 _511_
*1388 _512_
*1389 _513_
*1390 _23_<1>
*1391 _514_
*1392 _515_
*1393 _516_
*1394 _517_
*1395 _518_
*1396 _519_
*1397 _520_
*1398 _521_
*1399 _523_
*1400 _27_
*1401 _524_
*1402 _525_
*1403 _526_
*1404 _4_<0>
*1405 _527_
*1406 _4_<1>
*1407 _528_
*1408 _4_<2>
*1409 _529_
*1410 _4_<3>
*1411 _530_
*1412 _4_<4>
*1413 _531_
*1414 _4_<5>
*1415 _532_
*1416 _4_<6>
*1417 _533_
*1418 _4_<7>
*1419 _534_
*1420 _5_
*1421 _535_
*1422 AV
*1423 _536_
*1424 _537_
*1425 _538_
*1426 _539_
*1427 _540_
*1428 _541_
*1429 _542_
*1430 _543_
*1431 _544_
*1432 _10_
*1433 _545_
*1434 _546_
*1435 _547_
*1436 _548_
*1437 _549_
*1438 _3_
*1439 _550_
*1440 _551_
*1441 _1444_<0>
*1442 _552_
*1443 _1444_<1>
*1444 _553_
*1445 _1444_<2>
*1446 _554_
*1447 _1444_<3>
*1448 _555_
*1449 _1444_<4>
*1450 _556_
*1451 _1444_<5>
*1452 _557_
*1453 _1444_<6>
*1454 _558_
*1455 _1444_<7>
*1456 AN
*1457 _559_
*1458 _560_
*1459 _561_
*1460 _562_
*1461 _563_
*1462 _564_
*1463 _565_
*1464 _566_
*1465 _567_
*1466 _568_
*1467 _569_
*1468 _8_
*1469 AZ
*1470 _570_
*1471 _571_
*1472 _572_
*1473 _573_
*1474 _574_
*1475 _575_
*1476 _576_
*1477 _577_
*1478 _11_
*1479 _578_
*1480 _579_
*1481 _580_
*1482 _581_
*1483 _582_
*1484 _583_
*1485 _584_
*1486 _585_
*1487 _586_
*1488 _587_
*1489 _588_
*1490 _2_
*1491 _589_
*1492 _1445_<0>
*1493 _1445_<1>
*1494 _1445_<2>
*1495 _1445_<3>
*1496 _1445_<4>
*1497 _1445_<5>
*1498 _1445_<6>
*1499 _1445_<7>
*1500 _590_
*1501 _15_
*1502 _591_
*1503 _592_
*1504 _593_
*1505 _594_
*1506 _595_
*1507 _596_
*1508 _597_
*1509 _598_
*1510 _599_
*1511 _600_
*1512 _602_
*1513 _604_
*1514 _606_
*1515 _607_
*1516 _608_
*1517 _610_
*1518 _611_
*1519 _612_
*1520 _613_
*1521 _615_
*1522 _616_
*1523 _618_
*1524 _619_
*1525 _1439_<0>
*1526 _620_
*1527 _621_
*1528 _622_
*1529 _623_
*1530 _624_
*1531 _626_
*1532 _627_
*1533 _629_
*1534 _631_
*1535 _632_
*1536 _633_
*1537 _634_
*1538 _635_
*1539 _636_
*1540 _637_
*1541 _638_
*1542 _639_
*1543 _640_
*1544 _641_
*1545 _642_
*1546 _644_
*1547 _645_
*1548 _646_
*1549 _647_
*1550 _648_
*1551 _649_
*1552 _650_
*1553 _652_
*1554 _1_<0>
*1555 _653_
*1556 _657_
*1557 _658_
*1558 _1439_<1>
*1559 _659_
*1560 _1_<1>
*1561 _660_
*1562 _661_
*1563 _662_
*1564 _663_
*1565 _664_
*1566 _1439_<2>
*1567 _665_
*1568 _1_<2>
*1569 _666_
*1570 _667_
*1571 _668_
*1572 _669_
*1573 _670_
*1574 _1439_<3>
*1575 _671_
*1576 _1_<3>
*1577 _672_
*1578 _673_
*1579 _674_
*1580 _675_
*1581 _676_
*1582 _1439_<4>
*1583 _677_
*1584 _1_<4>
*1585 _678_
*1586 _679_
*1587 _680_
*1588 _681_
*1589 _682_
*1590 _1439_<5>
*1591 _683_
*1592 _1_<5>
*1593 _684_
*1594 _685_
*1595 _686_
*1596 _687_
*1597 _688_
*1598 _1439_<6>
*1599 _689_
*1600 _1_<6>
*1601 _690_
*1602 _691_
*1603 _692_
*1604 _693_
*1605 _694_
*1606 _1439_<7>
*1607 _695_
*1608 _1_<7>
*1609 _696_
*1610 _697_
*1611 _698_
*1612 _1439_<8>
*1613 _701_
*1614 _0_<0>
*1615 _702_
*1616 _703_
*1617 _705_
*1618 _706_
*1619 _1439_<9>
*1620 _707_
*1621 _0_<1>
*1622 _708_
*1623 _709_
*1624 _710_
*1625 _1439_<10>
*1626 _711_
*1627 _0_<2>
*1628 _712_
*1629 _713_
*1630 _714_
*1631 _1439_<11>
*1632 _715_
*1633 _0_<3>
*1634 _716_
*1635 _717_
*1636 _718_
*1637 _0_<4>
*1638 _719_
*1639 _720_
*1640 _721_
*1641 _1439_<13>
*1642 _722_
*1643 _723_
*1644 _725_
*1645 _726_
*1646 _1439_<14>
*1647 _727_
*1648 _728_
*1649 _729_
*1650 _1439_<15>
*1651 _730_
*1652 _0_<7>
*1653 _731_
*1654 _732_
*1655 _733_
*1656 _734_
*1657 _735_
*1658 _736_
*1659 _737_
*1660 _9_<0>
*1661 _738_
*1662 _739_
*1663 _9_<1>
*1664 _740_
*1665 _741_
*1666 _742_
*1667 _743_
*1668 _744_
*1669 _9_<2>
*1670 _745_
*1671 _746_
*1672 _747_
*1673 _9_<3>
*1674 _748_
*1675 _749_
*1676 _750_
*1677 _751_
*1678 _9_<4>
*1679 _752_
*1680 _753_
*1681 _754_
*1682 _755_
*1683 _756_
*1684 _9_<5>
*1685 _757_
*1686 _758_
*1687 _759_
*1688 _9_<6>
*1689 _760_
*1690 _761_
*1691 _762_
*1692 _763_
*1693 _9_<7>
*1694 _764_
*1695 _765_
*1696 _766_
*1697 _767_
*1698 _768_
*1699 _769_
*1700 _9_<8>
*1701 _770_
*1702 _771_
*1703 _772_
*1704 _773_
*1705 _774_
*1706 _9_<9>
*1707 _775_
*1708 _776_
*1709 _777_
*1710 _778_
*1711 _779_
*1712 _780_
*1713 _9_<10>
*1714 _781_
*1715 _782_
*1716 _783_
*1717 _9_<11>
*1718 _784_
*1719 _785_
*1720 _786_
*1721 _9_<12>
*1722 _1626_
*1723 _1627_
*1724 _1628_
*1725 _1629_
*1726 _1630_
*1727 _1632_
*1728 _1633_
*1729 _1634_
*1730 _1635_
*1731 _1636_
*1732 _1637_
*1733 _1638_
*1734 _1639_
*1735 _1640_
*1736 _1641_
*1737 _1642_
*1738 _1643_
*1739 _1644_
*1740 _1645_
*1741 _1646_
*1742 _1647_
*1743 _1648_
*1744 _1649_
*1745 _1650_
*1746 _1651_
*1747 _1652_
*1748 _1653_
*1749 _1654_
*1750 _1655_
*1751 _1656_
*1752 _1657_
*1753 _1658_
*1754 _1659_
*1755 _1660_
*1756 _1661_
*1757 _1662_
*1758 _1663_
*1759 _1664_
*1760 _1665_
*1761 _1666_
*1762 _1667_
*1763 _1668_
*1764 _1669_
*1765 _1670_
*1766 _1671_
*1767 _1452_
*1768 _1453_
*1769 _1454_
*1770 _1455_
*1771 _1456_
*1772 _1457_
*1773 _1458_
*1774 _1459_
*1775 _1460_
*1776 _1461_
*1777 _1462_
*1778 _1463_
*1779 _1464_
*1780 _1465_
*1781 _1466_
*1782 _1467_
*1783 _1468_
*1784 _1469_
*1785 _1470_
*1786 _1471_
*1787 _1472_
*1788 _1473_
*1789 _1474_
*1790 _1475_
*1791 _1476_
*1792 _1477_
*1793 _1478_
*1794 _1479_
*1795 _1480_
*1796 _1481_
*1797 _1482_
*1798 _1483_
*1799 _1484_
*1800 _1485_
*1801 _1486_
*1802 _1487_
*1803 _1488_
*1804 _1489_
*1805 _1490_
*1806 _1491_
*1807 _1492_
*1808 _1493_
*1809 _1494_
*1810 _1495_
*1811 _1496_
*1812 _1497_
*1813 _1498_
*1814 _1499_
*1815 _1500_
*1816 _1501_
*1817 _1502_
*1818 _1503_
*1819 _1504_
*1820 _1505_
*1821 _1506_
*1822 _1507_
*1823 _1508_
*1824 _1509_
*1825 _1510_
*1826 _1511_
*1827 _1512_
*1828 _1513_
*1829 _1514_
*1830 _1515_
*1831 _1516_
*1832 _1517_
*1833 _1518_
*1834 _1519_
*1835 _1520_
*1836 _1521_
*1837 _1522_
*1838 _1523_
*1839 _1524_
*1840 _1525_
*1841 _1526_
*1842 _1527_
*1843 _1528_
*1844 _1529_
*1845 _1530_
*1846 _1531_
*1847 _1532_
*1848 _1533_
*1849 _1534_
*1850 _1535_
*1851 _1536_
*1852 _1537_
*1853 _1538_
*1854 _1539_
*1855 _1540_
*1856 _1541_
*1857 _1542_
*1858 _1543_
*1859 _1544_
*1860 _1545_
*1861 _1546_
*1862 _1547_
*1863 _1548_
*1864 _1549_
*1865 _1550_
*1866 _1551_
*1867 _1552_
*1868 _1553_
*1869 _1554_
*1870 _1555_
*1871 _1556_
*1872 _1557_
*1873 _1558_
*1874 _1559_
*1875 _1560_
*1876 _1561_
*1877 _1562_
*1878 _1563_
*1879 _1564_
*1880 _1565_
*1881 _1566_
*1882 _1567_
*1883 _1568_
*1884 _1569_
*1885 _1570_
*1886 _1571_
*1887 _1572_
*1888 _1573_
*1889 _1574_
*1890 _1575_
*1891 _1576_
*1892 _1577_
*1893 _1578_
*1894 _1579_
*1895 _1580_
*1896 _1581_
*1897 _1582_
*1898 _1583_
*1899 _1584_
*1900 _1585_
*1901 _1586_
*1902 _1587_
*1903 _1588_
*1904 _1589_
*1905 _1590_
*1906 _1591_
*1907 _1592_
*1908 _1593_
*1909 _1594_
*1910 _1595_
*1911 _1596_
*1912 _1597_
*1913 _1598_
*1914 _1599_
*1915 _1600_
*1916 _1601_
*1917 _1602_
*1918 _1603_
*1919 _1604_
*1920 _1448_
*1921 _1605_
*1922 _1606_
*1923 _1450_
*1924 _1607_
*1925 _1449_
*1926 _1608_
*1927 _1609_
*1928 _1610_
*1929 _1611_
*1930 _1451_<0>
*1931 _1612_
*1932 _1451_<1>
*1933 _1613_
*1934 _1451_<2>
*1935 _1614_
*1936 _1451_<3>
*1937 _1615_
*1938 _1616_
*1939 _1617_
*1940 _1451_<4>
*1941 _1618_
*1942 _1451_<5>
*1943 _1619_
*1944 _1451_<6>
*1945 _1620_
*1946 _1451_<7>
*1947 _1621_
*1948 ALU.BI7
*1949 _1622_
*1950 _1447_
*1951 ALU.AI7
*1952 _1623_
*1953 _1446_
*1954 _1624_
*1955 _1625_
*1956 

*PORTS
*1
*2
*3
*4
*5
*6
*7
*8
*9
*10
*11
*12
*13
*14
*15
*16
*17
*18
*19
*20
*21
*22
*23
*24
*25
*26
*27
*28
*29
*30
*31
*32
*33
*34
*35
*36
*37
*38
*39
*40

*D_NET *15 34.810341
*CONN
*P RDY 
*I *1957:A 
*I *1958:A 
*I *1959:A 
*I *1960:A 
*I *1961:A 
*I *1962:A 
*I *1963:A 
*I *1964:A 
*I *1965:A 
*CAP
*RES
*END

*D_NET *41 22.509710
*CONN
*I *1966:C 
*I *1967:A 
*I *1968:A 
*I *1969:A 
*I *1970:A 
*I *1971:C 
*I *1972:C 
*I *1973:C 
*I *1974:A 
*I *1975:A 
*I *1976:A 
*I BUFX4_1:Y 
*CAP
*RES
*END

*D_NET *42 5.864620
*CONN
*I *1977:A 
*I *1978:A 
*I *1979:A 
*I *1980:A 
*I *1981:A 
*I *1982:A 
*I *1983:A 
*I *1984:A 
*I *1985:A 
*I *1986:A 
*I *1987:A 
*I BUFX4_2:Y 
*CAP
*RES
*END

*D_NET *43 11.312106
*CONN
*I *1988:A 
*I *1989:C 
*I *1990:A 
*I *1991:C 
*I *1992:A 
*I *1993:A 
*I *1994:A 
*I *1995:A 
*I *1996:A 
*I *1997:C 
*I *1998:A 
*I BUFX4_3:Y 
*CAP
*RES
*END

*D_NET *44 48.706112
*CONN
*I *1999:S 
*I *2000:A 
*I *-1:A 
*I *-1:B 
*I *-1:A 
*I *-1:A 
*I *-1:S 
*I *-1:A 
*I *-1:C 
*I *-1:C 
*I *-1:A 
*I BUFX4_4:Y 
*CAP
*RES
*END

*D_NET *45 7.528089
*CONN
*I *-1:A 
*I *-1:A 
*I *-1:A 
*I *-1:A 
*I *-1:A 
*I *-1:A 
*I *-1:C 
*I *-1:A 
*I *-1:S 
*I *-1:C 
*I *-1:C 
*I BUFX4_5:Y 
*CAP
*RES
*END

*D_NET *46 9.260381
*CONN
*I *-1:A 
*I *-1:C 
*I *-1:A 
*I *-1:A 
*I *-1:A 
*I *-1:A 
*I *-1:C 
*I *-1:A 
*I *-1:C 
*I *-1:A 
*I *-1:A 
*I BUFX4_6:Y 
*CAP
*RES
*END

*D_NET *47 6.069671
*CONN
*I *-1:C 
*I *-1:A 
*I *-1:A 
*I *-1:A 
*I *-1:A 
*I *-1:C 
*I *-1:C 
*I *-1:A 
*I *-1:A 
*I *-1:A 
*I BUFX4_7:Y 
*CAP
*RES
*END

*D_NET *48 23.388062
*CONN
*I *-1:A 
*I *-1:C 
*I *-1:A 
*I *-1:A 
*I *-1:A 
*I *-1:A 
*I *-1:A 
*I *-1:A 
*I *-1:A 
*I *-1:B 
*I BUFX4_8:Y 
*CAP
*RES
*END

*D_NET *49 25.130129
*CONN
*I *-1:A 
*I *-1:C 
*I *-1:A 
*I *-1:S 
*I *-1:A 
*I *-1:A 
*I *-1:C 
*I *-1:C 
*I *-1:A 
*I *-1:A 
*I BUFX4_9:Y 
*CAP
*RES
*END

*D_NET *50 10.137173
*CONN
*I *-1:Y 
*I *-1:A 
*I *-1:A 
*I *-1:A 
*I *-1:A 
*I *-1:A 
*I *-1:A 
*I *-1:A 
*I *-1:A 
*I *-1:A 
*I *-1:A 
*I *-1:A 
*I *-1:Y 
*CAP
*RES
*END

*D_NET *51 14.407860
*CONN
*I *-1:A 
*I *-1:A 
*I *-1:A 
*I *-1:A 
*I *-1:A 
*I *-1:A 
*I *-1:Y 
*CAP
*RES
*END

*D_NET *52 11.289265
*CONN
*I *-1:B 
*I *-1:A 
*I OAI21X1_117:A 
*I *-1:A 
*I *-1:B 
*I *-1:A 
*I *-1:Y 
*CAP
*RES
*END

*D_NET *53 2.094872
*CONN
*I *-1:A 
*I *-1:B 
*I *-1:A 
*I *-1:A 
*I *-1:A 
*I *-1:Y 
*CAP
*RES
*END

*D_NET *54 4.086529
*CONN
*I *-1:A 
*I *-1:A 
*I *-1:A 
*I *-1:A 
*I OAI21X1_94:A 
*I *-1:Y 
*CAP
*RES
*END

*D_NET *3 34.023636
*CONN
*P clk 
*I *-1:A 
*I *-1:A 
*I *-1:A 
*I *-1:A 
*I *-1:A 
*I *-1:A 
*I *-1:A 
*I *-1:A 
*I *-1:A 
*I *-1:A 
*I *-1:A 
*I *-1:A 
*CAP
*RES
*END

*D_NET *55 23.366184
*CONN
*I *-1:CLK 
*I *-1:CLK 
*I *-1:CLK 
*I *-1:CLK 
*I *-1:CLK 
*I *-1:CLK 
*I *-1:CLK 
*I *-1:CLK 
*I *-1:CLK 
*I *-1:CLK 
*I *-1:CLK 
*I *-1:CLK 
*I *-1:Y 
*CAP
*RES
*END

*D_NET *56 15.135642
*CONN
*I *-1:CLK 
*I *-1:CLK 
*I *-1:CLK 
*I *-1:CLK 
*I *-1:CLK 
*I *-1:CLK 
*I *-1:CLK 
*I *-1:CLK 
*I *-1:CLK 
*I *-1:CLK 
*I *-1:CLK 
*I *-1:CLK 
*I *-1:Y 
*CAP
*RES
*END

*D_NET *57 25.166140
*CONN
*I *-1:CLK 
*I *-1:CLK 
*I *-1:CLK 
*I *-1:CLK 
*I *-1:CLK 
*I *-1:CLK 
*I *-1:CLK 
*I *-1:CLK 
*I *-1:CLK 
*I *-1:CLK 
*I *-1:CLK 
*I *-1:CLK 
*I *-1:Y 
*I *-1:CLK 
*I *-1:CLK 
*I *-1:CLK 
*I *-1:CLK 
*I *-1:CLK 
*I *-1:CLK 
*I *-1:CLK 
*I *-1:CLK 
*I *-1:CLK 
*I *-1:CLK 
*I *-1:CLK 
*I *-1:CLK 
*I *-1:Y 
*CAP
*RES
*END

*D_NET *58 25.940075
*CONN
*I *-1:CLK 
*I *-1:CLK 
*I *-1:CLK 
*I *-1:CLK 
*I *-1:CLK 
*I *-1:CLK 
*I *-1:CLK 
*I *-1:CLK 
*I *-1:CLK 
*I *-1:CLK 
*I *-1:CLK 
*I *-1:CLK 
*I *-1:Y 
*I *-1:CLK 
*I *-1:CLK 
*I *-1:CLK 
*I *-1:CLK 
*I *-1:CLK 
*I *-1:CLK 
*I *-1:CLK 
*I *-1:CLK 
*I *-1:CLK 
*I *-1:CLK 
*I *-1:CLK 
*I *-1:CLK 
*I *-1:Y 
*CAP
*RES
*END

*D_NET *59 16.203667
*CONN
*I *-1:CLK 
*I *-1:CLK 
*I *-1:CLK 
*I *-1:CLK 
*I *-1:CLK 
*I *-1:CLK 
*I *-1:CLK 
*I *-1:CLK 
*I *-1:CLK 
*I *-1:CLK 
*I *-1:CLK 
*I *-1:CLK 
*I *-1:Y 
*CAP
*RES
*END

*D_NET *60 3.076337
*CONN
*I *-1:CLK 
*I *-1:CLK 
*I *-1:CLK 
*I *-1:CLK 
*I *-1:CLK 
*I *-1:CLK 
*I *-1:CLK 
*I *-1:CLK 
*I *-1:CLK 
*I *-1:CLK 
*I *-1:CLK 
*I *-1:CLK 
*I *-1:Y 
*CAP
*RES
*END

*D_NET *61 29.303375
*CONN
*I *-1:CLK 
*I *-1:CLK 
*I *-1:CLK 
*I *-1:CLK 
*I *-1:CLK 
*I *-1:CLK 
*I *-1:CLK 
*I *-1:CLK 
*I *-1:CLK 
*I *-1:CLK 
*I *-1:CLK 
*I *-1:CLK 
*I *-1:Y 
*CAP
*RES
*END

*D_NET *62 22.094217
*CONN
*I *-1:CLK 
*I *-1:CLK 
*I *-1:CLK 
*I *-1:CLK 
*I *-1:CLK 
*I *-1:CLK 
*I *-1:CLK 
*I *-1:CLK 
*I *-1:CLK 
*I *-1:CLK 
*I *-1:CLK 
*I *-1:CLK 
*I *-1:Y 
*CAP
*RES
*END

*D_NET *63 25.131258
*CONN
*I *-1:CLK 
*I *-1:CLK 
*I *-1:CLK 
*I *-1:CLK 
*I *-1:CLK 
*I *-1:CLK 
*I *-1:CLK 
*I *-1:CLK 
*I *-1:CLK 
*I *-1:CLK 
*I *-1:CLK 
*I *-1:CLK 
*I *-1:Y 
*CAP
*RES
*END

*D_NET *64 13.059669
*CONN
*I *-1:CLK 
*I *-1:CLK 
*I *-1:CLK 
*I *-1:CLK 
*I *-1:CLK 
*I *-1:CLK 
*I *-1:CLK 
*I *-1:CLK 
*I *-1:CLK 
*I *-1:CLK 
*I *-1:CLK 
*I *-1:CLK 
*I *-1:Y 
*CAP
*RES
*END

*D_NET *65 11.127426
*CONN
*I *-1:Y 
*I *-1:A 
*I *-1:A 
*I *-1:A 
*I *-1:A 
*CAP
*RES
*END

*D_NET *66 14.538625
*CONN
*I *-1:C 
*I *-1:C 
*I *-1:C 
*I *-1:A 
*I *-1:A 
*I *-1:A 
*I *-1:Y 
*CAP
*RES
*END

*D_NET *67 6.140905
*CONN
*I *-1:A 
*I *-1:A 
*I *-1:B 
*I *-1:A 
*I *-1:B 
*I *-1:B 
*I *-1:Y 
*CAP
*RES
*END

*D_NET *68 30.162445
*CONN
*I *-1:B 
*I *-1:B 
*I *-1:A 
*I *-1:B 
*I *-1:A 
*I *-1:A 
*I *-1:Y 
*CAP
*RES
*END

*D_NET *69 6.101605
*CONN
*I *-1:C 
*I *-1:A 
*I *-1:A 
*I *-1:B 
*I *-1:B 
*I *-1:A 
*I *-1:Y 
*CAP
*RES
*END

*D_NET *70 18.437515
*CONN
*I *-1:Y 
*I *-1:A 
*I *-1:A 
*I *-1:A 
*I *-1:A 